<?xml version="1.0" encoding="UTF-8"?>
<flow id="ad07accb-e443-4622-a8cd-d1c278b8119f">
  <descriptionCdata><![CDATA[ad07accb-e443-4622-a8cd-d1c278b8119f.dee8523a-9135-4d03-851a-40012d494020.description=<pre>\n\nMuestra un mensaje al usuario.\n\nEntradas\:\n  message - El texto de mensaje que se mostrar\u00E1\n  title - El t\u00EDtulo de la ventana de mensajes. El valor predeterminado es "Mensaje de estado".\n\nRespuestas\:\n  Devuelve siempre el estado correcto.\n\nEjemplos\:\n  Para mostrar el mensaje "Finalizado" al usuario, vaya a \n  la pantalla de informaci\u00F3n para la entrada llamada "message" y cambie la opci\u00F3n De lo contrario\n  de Preguntar al usuario a Usar constante.  Introduzca el texto "Finalizado" en el\n  campo Valor de constante.\n\n  Las referencias a las variables de flujo en el campo Valor de constante se ampl\u00EDan\n  que el texto pueda ser din\u00E1mico.  Las referencias de variables de flujo tienen\n  ${variable}.  Por ejemplo, el texto\:\n     ${count} sistemas se han modificado \n  se podr\u00EDa usar para mostrar un mensaje sobre el n\u00FAmero de sistemas que se hayan\n  reparado, cuyo valor se encuentra en la variable de flujo "recuento".\n\n  Cuando aparece el mensaje, se procesar\u00E1 adecuadamente cualquier etiqueta\n  html incrustada, que permite crear mensajes con un formato m\u00E1s avanzado.  Por \n  ejemplo, para mostrar un mensaje en cursiva, puede utilizar\:\n    <i>Esto es importante</i>\n  o para mostrar un mensaje en rojo\:\n    <i>Esto es <span style\="color\: red">realmente </span> importante</i>\n\n  Puede crear mensajes que contengan m\u00FAltiples l\u00EDneas introduciendo un mensaje\n  de varias l\u00EDneas en el campo Valor de constante, o utilizando las etiquetas <BR> HTML para saltos\n  de l\u00EDnea.  Tenga en cuenta que los caracteres \\n se muestran literalmente y no se usan para\n  crear m\u00FAltiples l\u00EDneas.\n\n</pre>\n
]]></descriptionCdata>
  <annotation></annotation>
  <name>display_message_flow</name>
  <categories/>
  <inputs>
    <staticBinding id="d9ac44f7-5e84-48d2-8573-ec6d497eebc1">
      <annotation></annotation>
      <assignFromContext>false</assignFromContext>
      <assignToContext>false</assignToContext>
      <inputType>STRING</inputType>
      <isList>false</isList>
      <required>false</required>
      <isPersisted>true</isPersisted>
      <inputSymbol>Display_Message_Flow</inputSymbol>
      <listDelimiter>,</listDelimiter>
      <value>This is a display message flow</value>
      <record>false</record>
    </staticBinding>
  </inputs>
  <possibleResponses>
    <opResponse id="1aba3ba8-36e0-4d09-890e-206eecbc04ca">
      <annotation></annotation>
      <name>success</name>
      <isDefault>true</isDefault>
      <onFailure>false</onFailure>
      <type>RESOLVED</type>
      <matchRules/>
    </opResponse>
  </possibleResponses>
  <availableResultExpressions/>
  <resultExpression id="a9e1f409-a180-4457-9274-b30649e5497b">
    <annotation></annotation>
    <name>FailureMessage</name>
    <fieldName>FailureMessage</fieldName>
    <sourceType>RAWRESULT</sourceType>
    <filters/>
  </resultExpression>
  <iconSpec id="4fb94f5b-2c15-420a-853e-02b5eda708b6">
    <baseIcon>flow.png</baseIcon>
    <basePath>System</basePath>
    <readOnly>false</readOnly>
    <layers/>
  </iconSpec>
  <callouts/>
  <checkPointFlow>true</checkPointFlow>
  <compatibleRuntimeContext>false</compatibleRuntimeContext>
  <historyCheckPointFlow>true</historyCheckPointFlow>
  <steps>
    <step id="dee8523a-9135-4d03-851a-40012d494020">
      <annotation>ad07accb-e443-4622-a8cd-d1c278b8119f.dee8523a-9135-4d03-851a-40012d494020.description</annotation>
      <name>Display Message</name>
      <bounds>
        <x>215.0</x>
        <y>93.0</y>
      </bounds>
      <layer>2</layer>
      <hideInbound>false</hideInbound>
      <addResultToRunContext>false</addResultToRunContext>
      <isCriticalStep>false</isCriticalStep>
      <isNonBlocking>false</isNonBlocking>
      <isParallelStep>false</isParallelStep>
      <isSingleResponse>false</isSingleResponse>
      <recordInHistory>false</recordInHistory>
      <recordRawOutput>true</recordRawOutput>
      <recordPrimaryOutput>true</recordPrimaryOutput>
      <checkPointStep>true</checkPointStep>
      <historyCheckPointStep>true</historyCheckPointStep>
      <scriptResultStep>false</scriptResultStep>
      <userPrompt></userPrompt>
      <bindings>
        <staticBinding id="cd5afd63-1bcd-4098-b54b-f9d7d41a1416">
          <annotation></annotation>
          <assignFromContext>false</assignFromContext>
          <assignToContext>false</assignToContext>
          <inputType>STRING</inputType>
          <isList>false</isList>
          <required>true</required>
          <isPersisted>true</isPersisted>
          <inputSymbol>message</inputSymbol>
          <listDelimiter>,</listDelimiter>
          <value>${Display_Message_Flow}</value>
          <record>false</record>
        </staticBinding>
        <staticBinding id="697483dd-12e7-41f2-9a0e-5bb08900b027">
          <annotation></annotation>
          <assignFromContext>false</assignFromContext>
          <assignToContext>false</assignToContext>
          <inputType>STRING</inputType>
          <isList>false</isList>
          <required>false</required>
          <isPersisted>true</isPersisted>
          <inputSymbol>title</inputSymbol>
          <listDelimiter>,</listDelimiter>
          <value>Status message</value>
          <record>false</record>
        </staticBinding>
      </bindings>
      <transitions>
        <transition id="e8837928-5876-472f-a609-fedf2924c867">
          <annotation></annotation>
          <name>success</name>
          <command>NEXT</command>
          <linkMode>false</linkMode>
          <responseSymbol>success</responseSymbol>
          <shouldHandoff>false</shouldHandoff>
          <transitionValue>0.0</transitionValue>
          <destination>
            <refId>0e0ea77b-cd97-46c7-b04a-7095b0f0ec49</refId>
          </destination>
          <source>
            <refId>dee8523a-9135-4d03-851a-40012d494020</refId>
          </source>
          <positions>
            <point>
              <x>265.0</x>
              <y>127.0</y>
            </point>
            <point>
              <x>686.0</x>
              <y>119.0</y>
            </point>
          </positions>
          <labelPosition>
            <x>333.0</x>
            <y>0.0</y>
          </labelPosition>
        </transition>
      </transitions>
      <properties/>
      <opRef>
        <refId>434e6fa2-26bc-4e84-9e1f-0aa6946cf920</refId>
      </opRef>
      <assignments/>
      <throttleSize>0</throttleSize>
    </step>
    <returnStep id="0e0ea77b-cd97-46c7-b04a-7095b0f0ec49">
      <annotation></annotation>
      <name>Resuelto : success</name>
      <bounds>
        <x>636.0</x>
        <y>93.0</y>
      </bounds>
      <layer>0</layer>
      <hideInbound>false</hideInbound>
      <addResultToRunContext>false</addResultToRunContext>
      <isCriticalStep>false</isCriticalStep>
      <isNonBlocking>false</isNonBlocking>
      <isParallelStep>false</isParallelStep>
      <isSingleResponse>false</isSingleResponse>
      <recordInHistory>false</recordInHistory>
      <recordRawOutput>true</recordRawOutput>
      <recordPrimaryOutput>true</recordPrimaryOutput>
      <checkPointStep>true</checkPointStep>
      <historyCheckPointStep>true</historyCheckPointStep>
      <scriptResultStep>false</scriptResultStep>
      <userPrompt></userPrompt>
      <bindings/>
      <transitions>
        <transition id="05149357-aeae-4ddc-875a-dcae4b7203bc">
          <annotation></annotation>
          <name>return</name>
          <command>NEXT</command>
          <linkMode>false</linkMode>
          <responseSymbol>success</responseSymbol>
          <shouldHandoff>false</shouldHandoff>
          <transitionValue>0.0</transitionValue>
          <destination>
            <refId>0e0ea77b-cd97-46c7-b04a-7095b0f0ec49</refId>
          </destination>
          <source>
            <refId>0e0ea77b-cd97-46c7-b04a-7095b0f0ec49</refId>
          </source>
          <positions/>
        </transition>
      </transitions>
      <properties/>
      <returnStepType>RESOLVED</returnStepType>
      <assignments/>
    </returnStep>
  </steps>
  <startSteps>dee8523a-9135-4d03-851a-40012d494020</startSteps>
</flow>